&jules_soil_biogeochem
ch4_cpow=1.0,
ch4_substrate=1,
const_ch4_cs=7.41e-12,
const_ch4_npp=9.99e-3,
const_ch4_resps=4.36e-3,
kaps=0.5e-8,
l_ch4_interactive=.false.,
l_ch4_microbe=.false.,
l_ch4_tlayered=.false.,
l_layeredc=.false.,
l_q10=.true.,
l_soil_resp_lev2=.false.,
q10_ch4_cs=3.7,
q10_ch4_npp=1.5,
q10_ch4_resps=1.5,
q10_soil=2.0,
soil_bgc_model=1,
t0_ch4=273.15,
/
