&jules_water_resources
l_water_resources=.false.,
/
